Connectedness/data/casedata/case300.py
# Copyright (c) 1996-2015 PSERC. All rights reserved.
# Use of this source code is governed by a BSD-style
# license that can be found in the LICENSE file.

"""Power flow data for IEEE 300 bus test case.
"""

from numpy import array

def case300():
    """Power flow data for IEEE 300 bus test case.
    Please see L{caseformat} for details on the case file format.

    This data was converted from IEEE Common Data Format
    (ieee300cdf.txt) on 20-Sep-2004 by cdf2matp, rev. 1.11
    See end of file for warnings generated during conversion.

    Converted from IEEE CDF file from:
    U{http://www.ee.washington.edu/research/pstca/}

    13/05/91 CYME INTERNATIONAL    100.0 1991 S IEEE 300-BUS TEST SYSTEM

    @return: Power flow data for IEEE 300 bus test case.
    """
    ppc = {"version": '2'}

    ##-----  Power Flow Data  -----##
    ## system MVA base
    ppc["baseMVA"] = 100.0

    ## bus data
    # bus_i type Pd Qd Gs Bs area Vm Va baseKV zone Vmax Vmin
    ppc["bus"] = array([
        [1, 1, 90, 49, 0, 0, 1, 1.0284, 5.95, 115, 1, 1.06, 0.94],
        [2, 1, 56, 15, 0, 0, 1, 1.0354, 7.74, 115, 1, 1.06, 0.94],
        [3, 1, 20, 0, 0, 0, 1, 0.9971, 6.64, 230, 1, 1.06, 0.94],
        [4, 1, 0, 0, 0, 0, 1, 1.0308, 4.71, 345, 1, 1.06, 0.94],
        [5, 1, 353, 130, 0, 0, 1, 1.0191, 4.68, 115, 1, 1.06, 0.94],
        [6, 1, 120, 41, 0, 0, 1, 1.0312, 6.99, 115, 1, 1.06, 0.94],
        [7, 1, 0, 0, 0, 0, 1, 0.9934, 6.19, 230, 1, 1.06, 0.94],
        [8, 2, 63, 14, 0, 0, 1, 1.0153, 2.4, 115, 1, 1.06, 0.94],
        [9, 1, 96, 43, 0, 0, 1, 1.0034, 2.85, 115, 1, 1.06, 0.94],
        [10, 2, 153, 33, 0, 0, 1, 1.0205, 1.35, 230, 1, 1.06, 0.94],
        [11, 1, 83, 21, 0, 0, 1, 1.0057, 2.46, 115, 1, 1.06, 0.94],
        [12, 1, 0, 0, 0, 0, 1, 0.9974, 5.21, 230, 1, 1.06, 0.94],
        [13, 1, 58, 10, 0, 0, 1, 0.9977, -0.55, 115, 1, 1.06, 0.94],
        [14, 1, 160, 60, 0, 0, 1, 0.9991, -4.81, 115, 1, 1.06, 0.94],
        [15, 1, 126.7, 23, 0, 0, 1, 1.0343, -8.59, 115, 1, 1.06, 0.94],
        [16, 1, 0, 0, 0, 0, 1, 1.0315, -2.65, 345, 1, 1.06, 0.94],
        [17, 1, 561, 220, 0, 0, 1, 1.0649, -13.1, 115, 1, 1.06, 0.94],
        [19, 1, 0, 0, 0, 0, 1, 0.982, 1.08, 230, 1, 1.06, 0.94],
        [20, 2, 605, 120, 0, 0, 1, 1.001, -2.46, 115, 1, 1.06, 0.94],
        [21, 1, 77, 1, 0, 0, 1, 0.9752, 1.62, 230, 1, 1.06, 0.94],
        [22, 1, 81, 23, 0, 0, 1, 0.9963, -1.97, 115, 1, 1.06, 0.94],
        [23, 1, 21, 7, 0, 0, 1, 1.0501, 3.94, 115, 1, 1.06, 0.94],
        [24, 1, 0, 0, 0, 0, 1, 1.0057, 6.02, 230, 1, 1.06, 0.94],
        [25, 1, 45, 12, 0, 0, 1, 1.0234, 1.44, 115, 1, 1.06, 0.94],
        [26, 1, 28, 9, 0, 0, 1, 0.9986, -1.73, 115, 1, 1.06, 0.94],
        [27, 1, 69, 13, 0, 0, 1, 0.975, -4.9, 115, 1, 1.06, 0.94],
        [33, 1, 55, 6, 0, 0, 1, 1.0244, -12.02, 115, 1, 1.06, 0.94],
        [34, 1, 0, 0, 0, 0, 1, 1.0414, -7.94, 345, 1, 1.06, 0.94],
        [35, 1, 0, 0, 0, 0, 1, 0.9757, -25.72, 115, 1, 1.06, 0.94],
        [36, 1, 0, 0, 0, 0, 1, 1.0011, -22.59, 230, 1, 1.06, 0.94],
        [37, 1, 85, 32, 0, 0, 1, 1.0201, -11.23, 115, 1, 1.06, 0.94],
        [38, 1, 155, 18, 0, 0, 1, 1.0202, -12.56, 115, 1, 1.06, 0.94],
        [39, 1, 0, 0, 0, 0, 1, 1.0535, -5.81, 345, 1, 1.06, 0.94],
        [40, 1, 46, -21, 0, 0, 1, 1.0216, -12.78, 115, 1, 1.06, 0.94],
        [41, 1, 86, 0, 0, 0, 1, 1.0292, -10.45, 115, 1, 1.06, 0.94],
        [42, 1, 0, 0, 0, 0, 1, 1.0448, -7.44, 345, 1, 1.06, 0.94],
        [43, 1, 39, 9, 0, 0, 1, 1.0006, -16.79, 115, 1, 1.06, 0.94],
        [44, 1, 195, 29, 0, 0, 1, 1.0086, -17.47, 115, 1, 1.06, 0.94],
        [45, 1, 0, 0, 0, 0, 1, 1.0215, -14.74, 230, 1, 1.06, 0.94],
        [46, 1, 0, 0, 0, 0, 1, 1.0344, -11.75, 345, 1, 1.06, 0.94],
        [47, 1, 58, 11.8, 0, 0, 1, 0.9777, -23.17, 115, 1, 1.06, 0.94],
        [48, 1, 41, 19, 0, 0, 1, 1.0019, -16.09, 115, 1, 1.06, 0.94],
        [49, 1, 92, 26, 0, 0, 1, 1.0475, -2.95, 115, 1, 1.06, 0.94],
        [51, 1, -5, 5, 0, 0, 1, 1.0253, -8.15, 115, 1, 1.06, 0.94],
        [52, 1, 61, 28, 0, 0, 1, 0.9979, -11.86, 115, 1, 1.06, 0.94],
        [53, 1, 69, 3, 0, 0, 1, 0.9959, -17.6, 115, 1, 1.06, 0.94],
        [54, 1, 10, 1, 0, 0, 1, 1.005, -16.25, 115, 1, 1.06, 0.94],
        [55, 1, 22, 10, 0, 0, 1, 1.015, -12.21, 115, 1, 1.06, 0.94],
        [57, 1, 98, 20, 0, 0, 1, 1.0335, -8, 115, 1, 1.06, 0.94],
        [58, 1, 14, 1, 0, 0, 1, 0.9918, -5.99, 115, 1, 1.06, 0.94],
        [59, 1, 218, 106, 0, 0, 1, 0.9789, -5.29, 115, 1, 1.06, 0.94],
        [60, 1, 0, 0, 0, 0, 1, 1.0246, -9.56, 230, 1, 1.06, 0.94],
        [61, 1, 227, 110, 0, 0, 1, 0.9906, -3.47, 115, 1, 1.06, 0.94],
        [62, 1, 0, 0, 0, 0, 1, 1.016, -1.1, 230, 1, 1.06, 0.94],
        [63, 2, 70, 30, 0, 0, 1, 0.9583, -17.62, 115, 1, 1.06, 0.94],
        [64, 1, 0, 0, 0, 0, 1, 0.948, -12.97, 230, 1, 1.06, 0.94],
        [69, 1, 0, 0, 0, 0, 1, 0.963, -25.66, 115, 1, 1.06, 0.94],
        [70, 1, 56, 20, 0, 0, 1, 0.9513, -35.16, 115, 1, 1.06, 0.94],
        [71, 1, 116, 38, 0, 0, 1, 0.9793, -29.88, 115, 1, 1.06, 0.94],
        [72, 1, 57, 19, 0, 0, 1, 0.9696, -27.48, 115, 1, 1.06, 0.94],
        [73, 1, 224, 71, 0, 0, 1, 0.9775, -25.77, 115, 1, 1.06, 0.94],
        [74, 1, 0, 0, 0, 0, 1, 0.9964, -22, 230, 1, 1.06, 0.94],
        [76, 2, 208, 107, 0, 0, 1, 0.9632, -26.54, 115, 1, 1.06, 0.94],
        [77, 1, 74, 28, 0, 0, 1, 0.9837, -24.94, 115, 1, 1.06, 0.94],
        [78, 1, 0, 0, 0, 0, 1, 0.99, -24.05, 115, 1, 1.06, 0.94],
        [79, 1, 48, 14, 0, 0, 1, 0.982, -24.97, 115, 1, 1.06, 0.94],
        [80, 1, 28, 7, 0, 0, 1, 0.9872, -24.97, 115, 1, 1.06, 0.94],
        [81, 1, 0, 0, 0, 0, 1, 1.034, -18.89, 345, 1, 1.06, 0.94],
        [84, 2, 37, 13, 0, 0, 1, 1.025, -17.16, 115, 1, 1.06, 0.94],
        [85, 1, 0, 0, 0, 0, 1, 0.9872, -17.68, 230, 1, 1.06, 0.94],
        [86, 1, 0, 0, 0, 0, 1, 0.9909, -14.19, 230, 1, 1.06, 0.94],
        [87, 1, 0, 0, 0, 0, 1, 0.9921, -7.77, 230, 1, 1.06, 0.94],
        [88, 1, 0, 0, 0, 0, 1, 1.0151, -20.96, 230, 1, 1.06, 0.94],
        [89, 1, 44.2, 0, 0, 0, 1, 1.0317, -11.13, 115, 1, 1.06, 0.94],
        [90, 1, 66, 0, 0, 0, 1, 1.0272, -11.23, 115, 1, 1.06, 0.94],
        [91, 2, 17.4, 0, 0, 0, 1, 1.052, -9.4, 115, 1, 1.06, 0.94],
        [92, 2, 15.8, 0, 0, 0, 1, 1.052, -6.2, 115, 1, 1.06, 0.94],
        [94, 1, 60.3, 0, 0, 0, 1, 0.993, -9.42, 115, 1, 1.06, 0.94],
        [97, 1, 39.9, 0, 0, 0, 1, 1.0183, -13.24, 115, 1, 1.06, 0.94],
        [98, 2, 66.7, 0, 0, 0, 1, 1, -14.6, 115, 1, 1.06, 0.94],
        [99, 1, 83.5, 0, 0, 0, 1, 0.9894, -20.27, 115, 1, 1.06, 0.94],
        [100, 1, 0, 0, 0, 0, 1, 1.006, -14.45, 115, 1, 1.06, 0.94],
        [102, 1, 77.8, 0, 0, 0, 1, 1.0008, -15.23, 115, 1, 1.06, 0.94],
        [103, 1, 32, 0, 0, 0, 1, 1.0288, -12.06, 115, 1, 1.06, 0.94],
        [104, 1, 8.6, 0, 0, 0, 1, 0.9958, -17.33, 115, 1, 1.06, 0.94],
        [105, 1, 49.6, 0, 0, 0, 1, 1.0223, -12.94, 115, 1, 1.06, 0.94],
        [107, 1, 4.6, 0, 0, 0, 1, 1.0095, -16.03, 115, 1, 1.06, 0.94],
        [108, 2, 112.1, 0, 0, 0, 1, 0.99, -20.26, 115, 1, 1.06, 0.94],
        [109, 1, 30.7, 0, 0, 0, 1, 0.9749, -26.06, 115, 1, 1.06, 0.94],
        [110, 1, 63, 0, 0, 0, 1, 0.973, -24.72, 115, 1, 1.06, 0.94],
        [112, 1, 19.6, 0, 0, 0, 1, 0.9725, -28.69, 115, 1, 1.06, 0.94],
        [113, 1, 26.2, 0, 0, 0, 1, 0.97, -25.38, 115, 1, 1.06, 0.94],
        [114, 1, 18.2, 0, 0, 0, 1, 0.9747, -28.59, 115, 1, 1.06, 0.94],
        [115, 1, 0, 0, 0, 0, 1, 0.9603, -13.57, 115, 2, 1.06, 0.94],
        [116, 1, 0, 0, 0, 0, 1, 1.0249, -12.69, 115, 2, 1.06, 0.94],
        [117, 1, 0, 0, 0, 325, 1, 0.9348, -4.72, 115, 2, 1.06, 0.94],
        [118, 1, 14.1, 650, 0, 0, 1, 0.9298, -4.12, 115, 2, 1.06, 0.94],
        [119, 2, 0, 0, 0, 0, 1, 1.0435, 5.17, 115, 2, 1.06, 0.94],
        [120, 1, 777, 215, 0, 55, 1, 0.9584, -8.77, 115, 2, 1.06, 0.94],
        [121, 1, 535, 55, 0, 0, 1, 0.9871, -12.64, 115, 2, 1.06, 0.94],
        [122, 1, 229.1, 11.8, 0, 0, 1, 0.9728, -14.36, 115, 2, 1.06, 0.94],
        [123, 1, 78, 1.4, 0, 0, 1, 1.0006, -17.64, 115, 2, 1.06, 0.94],
        [124, 2, 276.4, 59.3, 0, 0, 1, 1.0233, -13.49, 115, 2, 1.06, 0.94],
        [125, 2, 514.8, 82.7, 0, 0, 1, 1.0103, -18.43, 115, 2, 1.06, 0.94],
        [126, 1, 57.9, 5.1, 0, 0, 1, 0.9978, -12.86, 115, 2, 1.06, 0.94],
        [127, 1, 380.8, 37, 0, 0, 1, 1.0001, -10.52, 230, 2, 1.06, 0.94],
        [128, 1, 0, 0, 0, 0, 1, 1.0024, -4.78, 230, 2, 1.06, 0.94],
        [129, 1, 0, 0, 0, 0, 1, 1.0028, -4.4, 230, 2, 1.06, 0.94],
        [130, 1, 0, 0, 0, 0, 1, 1.0191, 5.56, 230, 2, 1.06, 0.94],
        [131, 1, 0, 0, 0, 0, 1, 0.9861, 6.06, 230, 2, 1.06, 0.94],
        [132, 1, 0, 0, 0, 0, 1, 1.0045, 3.04, 230, 2, 1.06, 0.94],
        [133, 1, 0, 0, 0, 0, 1, 1.002, -5.46, 230, 2, 1.06, 0.94],
        [134, 1, 0, 0, 0, 0, 1, 1.022, -8.04, 230, 2, 1.06, 0.94],
        [135, 1, 169.2, 41.6, 0, 0, 1, 1.0193, -6.76, 230, 2, 1.06, 0.94],
        [136, 1, 55.2, 18.2, 0, 0, 1, 1.0476, 1.54, 230, 2, 1.06, 0.94],
        [137, 1, 273.6, 99.8, 0, 0, 1, 1.0471, -1.45, 230, 2, 1.06, 0.94],
        [138, 2, 1019.2, 135.2, 0, 0, 1, 1.055, -6.35, 230, 2, 1.06, 0.94],
        [139, 1, 595, 83.3, 0, 0, 1, 1.0117, -3.57, 115, 2, 1.06, 0.94],
        [140, 1, 387.7, 114.7, 0, 0, 1, 1.043, -3.44, 230, 2, 1.06, 0.94],
        [141, 2, 145, 58, 0, 0, 1, 1.051, 0.05, 230, 2, 1.06, 0.94],
        [142, 1, 56.5, 24.5, 0, 0, 1, 1.0155, -2.77, 230, 2, 1.06, 0.94],
        [143, 2, 89.5, 35.5, 0, 0, 1, 1.0435, 4.03, 230, 2, 1.06, 0.94],
        [144, 1, 0, 0, 0, 0, 1, 1.016, -0.7, 230, 2, 1.06, 0.94],
        [145, 1, 24, 14, 0, 0, 1, 1.0081, -0.16, 230, 2, 1.06, 0.94],
        [146, 2, 0, 0, 0, 0, 1, 1.0528, 4.32, 230, 2, 1.06, 0.94],
        [147, 2, 0, 0, 0, 0, 1, 1.0528, 8.36, 230, 2, 1.06, 0.94],
        [148, 1, 63, 25, 0, 0, 1, 1.0577, 0.28, 230, 2, 1.06, 0.94],
        [149, 2, 0, 0, 0, 0, 1, 1.0735, 5.23, 230, 2, 1.06, 0.94],
        [150, 1, 0, 0, 0, 0, 1, 0.9869, 6.34, 230, 2, 1.06, 0.94],
        [151, 1, 0, 0, 0, 0, 1, 1.0048, 4.13, 230, 2, 1.06, 0.94],
        [152, 2, 17, 9, 0, 0, 1, 1.0535, 9.24, 230, 2, 1.06, 0.94],
        [153, 2, 0, 0, 0, 0, 1, 1.0435, 10.46, 230, 2, 1.06, 0.94],
        [154, 1, 70, 5, 0, 34.5, 1, 0.9663, -1.8, 115, 2, 1.06, 0.94],
        [155, 1, 200, 50, 0, 0, 1, 1.0177, 6.75, 230, 2, 1.06, 0.94],
        [156, 2, 75, 50, 0, 0, 1, 0.963, 5.15, 115, 2, 1.06, 0.94],
        [157, 1, 123.5, -24.3, 0, 0, 1, 0.9845, -11.93, 230, 2, 1.06, 0.94],
        [158, 1, 0, 0, 0, 0, 1, 0.9987, -11.4, 230, 2, 1.06, 0.94],
        [159, 1, 33, 16.5, 0, 0, 1, 0.9867, -9.82, 230, 2, 1.06, 0.94],
        [160, 1, 0, 0, 0, 0, 1, 0.9998, -12.55, 230, 2, 1.06, 0.94],
        [161, 1, 35, 15, 0, 0, 1, 1.036, 8.85, 230, 2, 1.06, 0.94],
        [162, 1, 85, 24, 0, 0, 1, 0.9918, 18.5, 230, 2, 1.06, 0.94],
        [163, 1, 0, 0.4, 0, 0, 1, 1.041, 2.91, 230, 2, 1.06, 0.94],
        [164, 1, 0, 0, 0, -212, 1, 0.9839, 9.66, 230, 2, 1.06, 0.94],
        [165, 1, 0, 0, 0, 0, 1, 1.0002, 26.31, 230, 2, 1.06, 0.94],
        [166, 1, 0, 0, 0, -103, 1, 0.9973, 30.22, 230, 2, 1.06, 0.94],
        [167, 1, 299.9, 95.7, 0, 0, 1, 0.9715, -6.91, 230, 2, 1.06, 0.94],
        [168, 1, 0, 0, 0, 0, 1, 1.0024, -4.8, 230, 2, 1.06, 0.94],
        [169, 1, 0, 0, 0, 0, 1, 0.9879, -6.68, 230, 2, 1.06, 0.94],
        [170, 2, 481.8, 205, 0, 0, 1, 0.929, 0.09, 115, 2, 1.06, 0.94],
        [171, 2, 763.6, 291.1, 0, 0, 1, 0.9829, -9.94, 115, 2, 1.06, 0.94],
        [172, 1, 26.5, 0, 0, 0, 1, 1.0244, -6.22, 115, 2, 1.06, 0.94],
        [173, 1, 163.5, 43, 0, 53, 1, 0.9837, -12.75, 115, 2, 1.06, 0.94],
        [174, 1, 0, 0, 0, 0, 1, 1.0622, -2.69, 115, 2, 1.06, 0.94],
        [175, 1, 176, 83, 0, 0, 1, 0.973, -7.21, 115, 2, 1.06, 0.94],
        [176, 2, 5, 4, 0, 0, 1, 1.0522, 4.67, 115, 2, 1.06, 0.94],
        [177, 2, 28, 12, 0, 0, 1, 1.0077, 0.62, 115, 2, 1.06, 0.94],
        [178, 1, 427.4, 173.6, 0, 0, 1, 0.9397, -6.56, 115, 2, 1.06, 0.94],
        [179, 1, 74, 29, 0, 45, 1, 0.9699, -9.37, 115, 2, 1.06, 0.94],
        [180, 1, 69.5, 49.3, 0, 0, 1, 0.9793, -3.09, 115, 2, 1.06, 0.94],
        [181, 1, 73.4, 0, 0, 0, 1, 1.0518, -1.33, 230, 2, 1.06, 0.94],
        [182, 1, 240.7, 89, 0, 0, 1, 1.0447, -4.19, 230, 2, 1.06, 0.94],
        [183, 1, 40, 4, 0, 0, 1, 0.9717, 7.12, 115, 2, 1.06, 0.94],
        [184, 1, 136.8, 16.6, 0, 0, 1, 1.0386, -6.85, 230, 2, 1.06, 0.94],
        [185, 2, 0, 0, 0, 0, 1, 1.0522, -4.33, 230, 2, 1.06, 0.94],
        [186, 2, 59.8, 24.3, 0, 0, 1, 1.065, 2.17, 230, 2, 1.06, 0.94],
        [187, 2, 59.8, 24.3, 0, 0, 1, 1.065, 1.4, 230, 2, 1.06, 0.94],
        [188, 1, 182.6, 43.6, 0, 0, 1, 1.0533, -0.72, 230, 2, 1.06, 0.94],
        [189, 1, 7, 2, 0, 0, 1, 0.9975, -25.84, 66, 3, 1.06, 0.94],
        [190, 2, 0, 0, 0, -150, 1, 1.0551, -20.62, 345, 3, 1.06, 0.94],
        [191, 2, 489, 53, 0, 0, 1, 1.0435, 12.25, 230, 3, 1.06, 0.94],
        [192, 1, 800, 72, 0, 0, 1, 0.9374, -11.18, 230, 3, 1.06, 0.94],
        [193, 1, 0, 0, 0, 0, 1, 0.9897, -26.09, 66, 3, 1.06, 0.94],
        [194, 1, 0, 0, 0, 0, 1, 1.0489, -19.21, 345, 3, 1.06, 0.94],
        [195, 1, 0, 0, 0, 0, 1, 1.0357, -20.79, 345, 3, 1.06, 0.94],
        [196, 1, 10, 3, 0, 0, 1, 0.9695, -25.32, 115, 3, 1.06, 0.94],
        [197, 1, 43, 14, 0, 0, 1, 0.9907, -23.72, 115, 3, 1.06, 0.94],
        [198, 2, 64, 21, 0, 0, 1, 1.015, -20.58, 115, 3, 1.06, 0.94],
        [199, 1, 35, 12, 0, 0, 1, 0.9528, -26.05, 115, 3, 1.06, 0.94],
        [200, 1, 27, 12, 0, 0, 1, 0.955, -25.93, 115, 3, 1.06, 0.94],
        [201, 1, 41, 14, 0, 0, 1, 0.9692, -27.49, 66, 1, 1.06, 0.94],
        [202, 1, 38, 13, 0, 0, 1, 0.9908, -25.33, 66, 3, 1.06, 0.94],
        [203, 1, 42, 14, 0, 0, 1, 1.0033, -22.35, 115, 3, 1.06, 0.94],
        [204, 1, 72, 24, 0, 0, 1, 0.9718, -25.7, 66, 3, 1.06, 0.94],
        [205, 1, 0, -5, 0, 0, 1, 0.9838, -26.07, 66, 3, 1.06, 0.94],
        [206, 1, 12, 2, 0, 0, 1, 0.9992, -27.41, 66, 3, 1.06, 0.94],
        [207, 1, -21, -14.2, 0, 0, 1, 1.0137, -27.44, 66, 1, 1.06, 0.94],
        [208, 1, 7, 2, 0, 0, 1, 0.9929, -26.28, 66, 3, 1.06, 0.94],
        [209, 1, 38, 13, 0, 0, 1, 0.9999, -25.66, 66, 3, 1.06, 0.94],
        [210, 1, 0, 0, 0, 0, 1, 0.9788, -24.22, 115, 3, 1.06, 0.94],
        [211, 1, 96, 7, 0, 0, 1, 1.0017, -23.31, 115, 3, 1.06, 0.94],
        [212, 1, 0, 0, 0, 0, 1, 1.0132, -22.51, 138, 3, 1.06, 0.94],
        [213, 2, 0, 0, 0, 0, 1, 1.01, -11.67, 16.5, 3, 1.06, 0.94],
        [214, 1, 22, 16, 0, 0, 1, 0.9919, -17.53, 138, 3, 1.06, 0.94],
        [215, 1, 47, 26, 0, 0, 1, 0.9866, -20.23, 138, 3, 1.06, 0.94],
        [216, 1, 176, 105, 0, 0, 1, 0.9751, -22.53, 138, 3, 1.06, 0.94],
        [217, 1, 100, 75, 0, 0, 1, 1.0215, -22.2, 138, 3, 1.06, 0.94],
        [218, 1, 131, 96, 0, 0, 1, 1.0075, -22.63, 138, 3, 1.06, 0.94],
        [219, 1, 0, 0, 0, 0, 1, 1.0554, -21.15, 345, 3, 1.06, 0.94],
        [220, 2, 285, 100, 0, 0, 1, 1.008, -21.73, 138, 3, 1.06, 0.94],
        [221, 2, 171, 70, 0, 0, 1, 1, -22.49, 138, 3, 1.06, 0.94],
...
    ])

    ## generator data
    # bus, Pg, Qg, Qmax, Qmin, Vg, mBase, status, Pmax, Pmin, Pc1, Pc2,
    # Qc1min, Qc1max, Qc2min, Qc2max, ramp_agc, ramp_10, ramp_30, ramp_q, apf
    ppc["gen"] = array([
        [8, 0, 0, 10, -10, 1.0153, 100, 1, 100, 0, 0, 0, 0, 0, 0, 0, 0, 0, 0, 0, 0],
        [10, 0, 0, 20, -20, 1.0205, 100, 1, 100, 0, 0, 0, 0, 0, 0, 0, 0, 0, 0, 0, 0],
        [20, 0, 0, 20, -20, 1.001, 100, 1, 100, 0, 0, 0, 0, 0, 0, 0, 0, 0, 0, 0, 0],
        [63, 0, 0, 25, -25, 0.9583, 100, 1, 100, 0, 0, 0, 0, 0, 0, 0, 0, 0, 0, 0, 0],
        [76, 0, 0, 35, 12, 0.9632, 100, 1, 100, 0, 0, 0, 0, 0, 0, 0, 0, 0, 0, 0, 0],
        [84, 375, 0, 240, -240, 1.025, 100, 1, 475, 0, 0, 0, 0, 0, 0, 0, 0, 0, 0, 0, 0],
        [91, 155, 0, 96, -11, 1.052, 100, 1, 255, 0, 0, 0, 0, 0, 0, 0, 0, 0, 0, 0, 0],
        [92, 290, 0, 153, -153, 1.052, 100, 1, 390, 0, 0, 0, 0, 0, 0, 0, 0, 0, 0, 0, 0],
        [98, 68, 0, 56, -30, 1, 100, 1, 168, 0, 0, 0, 0, 0, 0, 0, 0, 0, 0, 0, 0],
        [108, 117, 0, 77, -24, 0.99, 100, 1, 217, 0, 0, 0, 0, 0, 0, 0, 0, 0, 0, 0, 0],
        [119, 1930, 0, 1500, -500, 1.0435, 100, 1, 2030, 0, 0, 0, 0, 0, 0, 0, 0, 0, 0, 0, 0],
        [124, 240, 0, 120, -60, 1.0233, 100, 1, 340, 0, 0, 0, 0, 0, 0, 0, 0, 0, 0, 0, 0],
        [125, 0, 0, 200, -25, 1.0103, 100, 1, 100, 0, 0, 0, 0, 0, 0, 0, 0, 0, 0, 0, 0],
        [138, 0, 0, 350, -125, 1.055, 100, 1, 100, 0, 0, 0, 0, 0, 0, 0, 0, 0, 0, 0, 0],
        [141, 281, 0, 75, -50, 1.051, 100, 1, 381, 0, 0, 0, 0, 0, 0, 0, 0, 0, 0, 0, 0],
        [143, 696, 0, 300, -100, 1.0435, 100, 1, 796, 0, 0, 0, 0, 0, 0, 0, 0, 0, 0, 0, 0],
        [146, 84, 0, 35, -15, 1.0528, 100, 1, 184, 0, 0, 0, 0, 0, 0, 0, 0, 0, 0, 0, 0],
        [147, 217, 0, 100, -50, 1.0528, 100, 1, 317, 0, 0, 0, 0, 0, 0, 0, 0, 0, 0, 0, 0],
        [149, 103, 0, 50, -25, 1.0735, 100, 1, 203, 0, 0, 0, 0, 0, 0, 0, 0, 0, 0, 0, 0],
        [152, 372, 0, 175, -50, 1.0535, 100, 1, 472, 0, 0, 0, 0, 0, 0, 0, 0, 0, 0, 0, 0],
        [153, 216, 0, 90, -50, 1.0435, 100, 1, 316, 0, 0, 0, 0, 0, 0, 0, 0, 0, 0, 0, 0],
        [156, 0, 0, 15, -10, 0.963, 100, 1, 100, 0, 0, 0, 0, 0, 0, 0, 0, 0, 0, 0, 0],
        [170, 205, 0, 90, -40, 0.929, 100, 1, 305, 0, 0, 0, 0, 0, 0, 0, 0, 0, 0, 0, 0],
        [171, 0, 0, 150, -50, 0.9829, 100, 1, 100, 0, 0, 0, 0, 0, 0, 0, 0, 0, 0, 0, 0],
        [176, 228, 0, 90, -45, 1.0522, 100, 1, 328, 0, 0, 0, 0, 0, 0, 0, 0, 0, 0, 0, 0],
        [177, 84, 0, 35, -15, 1.0077, 100, 1, 184, 0, 0, 0, 0, 0, 0, 0, 0, 0, 0, 0, 0],
        [185, 200, 0, 80, -50, 1.0522, 100, 1, 300, 0, 0, 0, 0, 0, 0, 0, 0, 0, 0, 0, 0],
        [186, 1200, 0, 400, -100, 1.065, 100, 1, 1300, 0, 0, 0, 0, 0, 0, 0, 0, 0, 0, 0, 0],
        [187, 1200, 0, 400, -100, 1.065, 100, 1, 1300, 0, 0, 0, 0, 0, 0, 0, 0, 0, 0, 0, 0],
        [190, 475, 0, 300, -300, 1.0551, 100, 1, 575, 0, 0, 0, 0, 0, 0, 0, 0, 0, 0, 0, 0],
        [191, 1973, 0, 1000, -1000, 1.0435, 100, 1, 2073, 0, 0, 0, 0, 0, 0, 0, 0, 0, 0, 0, 0],
        [198, 424, 0, 260, -260, 1.015, 100, 1, 524, 0, 0, 0, 0, 0, 0, 0, 0, 0, 0, 0, 0],
        [213, 272, 0, 150, -150, 1.01, 100, 1, 372, 0, 0, 0, 0, 0, 0, 0, 0, 0, 0, 0, 0],
        [220, 100, 0, 60, -60, 1.008, 100, 1, 200, 0, 0, 0, 0, 0, 0, 0, 0, 0, 0, 0, 0],
        [221, 450, 0, 320, -320, 1, 100, 1, 550, 0, 0, 0, 0, 0, 0, 0, 0, 0, 0, 0, 0],
        [222, 250, 0, 300, -300, 1.05, 100, 1, 350, 0, 0, 0, 0, 0, 0, 0, 0, 0, 0, 0, 0],
        [227, 303, 0, 300, -300, 1, 100, 1, 403, 0, 0, 0, 0, 0, 0, 0, 0, 0, 0, 0, 0],
        [230, 345, 0, 250, -250, 1.04, 100, 1, 445, 0, 0, 0, 0, 0, 0, 0, 0, 0, 0, 0, 0],
        [233, 300, 0, 500, -500, 1, 100, 1, 400, 0, 0, 0, 0, 0, 0, 0, 0, 0, 0, 0, 0],
        [236, 600, 0, 300, -300, 1.0165, 100, 1, 700, 0, 0, 0, 0, 0, 0, 0, 0, 0, 0, 0, 0],
        [238, 250, 0, 200, -200, 1.01, 100, 1, 350, 0, 0, 0, 0, 0, 0, 0, 0, 0, 0, 0, 0],
        [239, 550, 0, 400, -400, 1, 100, 1, 650, 0, 0, 0, 0, 0, 0, 0, 0, 0, 0, 0, 0],
        [241, 575.43, 0, 600, -600, 1.05, 100, 1, 675.43, 0, 0, 0, 0, 0, 0, 0, 0, 0, 0, 0, 0],
        [242, 170, 0, 100, 40, 0.993, 100, 1, 270, 0, 0, 0, 0, 0, 0, 0, 0, 0, 0, 0, 0],
        [243, 84, 0, 80, 40, 1.01, 100, 1, 184, 0, 0, 0, 0, 0, 0, 0, 0, 0, 0, 0, 0],
        [7001, 467, 0, 210, -210, 1.0507, 100, 1, 567, 0, 0, 0, 0, 0, 0, 0, 0, 0, 0, 0, 0],
        [7002, 623, 0, 280, -280, 1.0507, 100, 1, 723, 0, 0, 0, 0, 0, 0, 0, 0, 0, 0, 0, 0],
        [7003, 1210, 0, 420, -420, 1.0323, 100, 1, 1310, 0, 0, 0, 0, 0, 0, 0, 0, 0, 0, 0, 0],
        [7011, 234, 0, 100, -100, 1.0145, 100, 1, 334, 0, 0, 0, 0, 0, 0, 0, 0, 0, 0, 0, 0],
        [7012, 372, 0, 224, -224, 1.0507, 100, 1, 472, 0, 0, 0, 0, 0, 0, 0, 0, 0, 0, 0, 0],
        [7017, 330, 0, 350, 0, 1.0507, 100, 1, 430, 0, 0, 0, 0, 0, 0, 0, 0, 0, 0, 0, 0],
        [7023, 185, 0, 120, 0, 1.0507, 100, 1, 285, 0, 0, 0, 0, 0, 0, 0, 0, 0, 0, 0, 0],
        [7024, 410, 0, 224, -224, 1.029, 100, 1, 510, 0, 0, 0, 0, 0, 0, 0, 0, 0, 0, 0, 0],
        [7039, 500, 0, 200, -200, 1.05, 100, 1, 600, 0, 0, 0, 0, 0, 0, 0, 0, 0, 0, 0, 0],
        [7044, 37, 0, 42, 0, 1.0145, 100, 1, 137, 0, 0, 0, 0, 0, 0, 0, 0, 0, 0, 0, 0],
        [7049, 0, 0, 10, 0, 1.0507, 100, 1, 2399.01, 0, 0, 0, 0, 0, 0, 0, 0, 0, 0, 0, 0],
        [7055, 45, 0, 25, 0, 0.9967, 100, 1, 145, 0, 0, 0, 0, 0, 0, 0, 0, 0, 0, 0, 0],
        [7057, 165, 0, 90, -90, 1.0212, 100, 1, 265, 0, 0, 0, 0, 0, 0, 0, 0, 0, 0, 0, 0],
        [7061, 400, 0, 150, -150, 1.0145, 100, 1, 500, 0, 0, 0, 0, 0, 0, 0, 0, 0, 0, 0, 0],
        [7062, 400, 0, 150, 0, 1.0017, 100, 1, 500, 0, 0, 0, 0, 0, 0, 0, 0, 0, 0, 0, 0],
        [7071, 116, 0, 87, 0, 0.9893, 100, 1, 216, 0, 0, 0, 0, 0, 0, 0, 0, 0, 0, 0, 0],
        [7130, 1292, 0, 600, -100, 1.0507, 100, 1, 1392, 0, 0, 0, 0, 0, 0, 0, 0, 0, 0, 0, 0],
        [7139, 700, 0, 325, -125, 1.0507, 100, 1, 800, 0, 0, 0, 0, 0, 0, 0, 0, 0, 0, 0, 0],
        [7166, 553, 0, 300, -200, 1.0145, 100, 1, 653, 0, 0, 0, 0, 0, 0, 0, 0, 0, 0, 0, 0],
        [9002, 0, 0, 2, -2, 0.9945, 100, 1, 100, 0, 0, 0, 0, 0, 0, 0, 0, 0, 0, 0, 0],
        [9051, 0, 0, 17.35, -17.35, 1, 100, 1, 100, 0, 0, 0, 0, 0, 0, 0, 0, 0, 0, 0, 0],
        [9053, 0, 0, 12.83, -12.8, 1, 100, 1, 100, 0, 0, 0, 0, 0, 0, 0, 0, 0, 0, 0, 0],
        [9054, 50, 0, 38, -38, 1, 100, 1, 150, 0, 0, 0, 0, 0, 0, 0, 0, 0, 0, 0, 0],
        [9055, 8, 0, 6, -6, 1, 100, 1, 108, 0, 0, 0, 0, 0, 0, 0, 0, 0, 0, 0, 0]
    ])

    ## branch data
    # fbus, tbus, r, x, b, rateA, rateB, rateC, ratio, angle, status, angmin, angmax
    ppc["branch"] = array([
        [37, 9001, 6e-05, 0.00046, 0, 796.3  , 0, 75, 1.0082, 0, 1, -360, 360],
        [9001, 9005, 0.0008, 0.00348, 0,  362.  , 0, 0, 0, 0, 1, -360, 360],
        [9001, 9006, 0.02439, 0.43682, 0, 264.3  , 0, 0, 0.9668, 0, 1, -360, 360],
        [9001, 9012, 0.03624, 0.64898, 0, 169.9  , 0, 0, 0.9796, 0, 1, -360, 360],
        [9005, 9051, 0.01578, 0.37486, 0, 360.4  , 0, 0, 1.0435, 0, 1, -360, 360],
        [9005, 9052, 0.01578, 0.37486, 0, 302.4  , 0, 0, 0.9391, 0, 1, -360, 360],
        [9005, 9053, 0.01602, 0.38046, 0, 279.2  , 0, 0, 1.0435, 0, 1, -360, 360],
        [9005, 9054, 0, 0.152, 0, 500. , 0, 0, 1.0435, 0, 1, -360, 360],
        [9005, 9055, 0, 0.8, 0, 400. , 0, 0, 1.0435, 0, 1, -360, 360],
        [9006, 9007, 0.05558, 0.24666, 0, 473.5  , 0, 0, 0, 0, 1, -360, 360],
        [9006, 9003, 0.11118, 0.49332, 0, 419.5  , 0, 0, 0, 0, 1, -360, 360],
        [9006, 9003, 0.11118, 0.49332, 0, 419.5  , 0, 0, 0, 0, 1, -360, 360],
        [9012, 9002, 0.07622, 0.43286, 0, 326. , 0, 0, 0, 0, 1, -360, 360],
        [9012, 9002, 0.07622, 0.43286, 0, 326. , 0, 0, 0, 0, 1, -360, 360],
        [9002, 9021, 0.0537, 0.07026, 0,  367.5 , 0, 0, 0, 0, 1, -360, 360],
        [9021, 9023, 1.1068, 0.95278, 0, 47.5 , 0, 0, 0, 0, 1, -360, 360],
        [9021, 9022, 0.44364, 2.8152, 0, 81.  , 0, 0, 1, 0, 1, -360, 360],
        [9002, 9024, 0.50748, 3.2202, 0, 71.5 , 0, 0, 1, 0, 1, -360, 360],
        [9023, 9025, 0.66688, 3.944, 0,  23.5  , 0, 0, 1, 0, 1, -360, 360],
        [9023, 9026, 0.6113, 3.6152, 0,  23.5  , 0, 0, 1, 0, 1, -360, 360],
        [9007, 9071, 0.4412, 2.9668, 0,  53.5  , 0, 0, 1, 0, 1, -360, 360],
        [9007, 9072, 0.30792, 2.057, 0,  53.5  , 0, 0, 1, 0, 1, -360, 360],
        [9007, 9003, 0.0558, 0.24666, 0,  363.5 , 0, 0, 0, 0, 1, -360, 360],
        [9003, 9031, 0.73633, 4.6724, 0, 98.  , 0, 0, 1, 0, 1, -360, 360],
        [9003, 9032, 0.76978, 4.8846, 0, 73.5 , 0, 0, 1, 0, 1, -360, 360],
        [9003, 9033, 0.75732, 4.8056, 0,  100.5 , 0, 0, 1, 0, 1, -360, 360],
        [9003, 9044, 0.07378, 0.06352, 0, 220.5  , 0, 0, 0, 0, 1, -360, 360],
        [9044, 9004, 0.03832, 0.02894, 0, 219.5  , 0, 0, 0, 0, 1, -360, 360],
        [9004, 9041, 0.36614, 2.456, 0,  53. , 0, 0, 1, 0, 1, -360, 360],
        [9004, 9042, 1.0593, 5.4536, 0,  43. , 0, 0, 1, 0, 1, -360, 360],
        [9004, 9043, 0.1567, 1.6994, 0,  80. , 0, 0, 1, 0, 1, -360, 360],
        [9003, 9034, 0.13006, 1.3912, 0, 81.5 , 0, 0, 1, 0, 1, -360, 360],
        [9003, 9035, 0.54484, 3.4572, 0, 88.  , 0, 0, 1, 0, 1, -360, 360],
        [9003, 9036, 0.15426, 1.6729, 0,  152.5 , 0, 0, 1, 0, 1, -360, 360],
        [9003, 9037, 0.3849, 2.5712, 0,  98.5  , 0, 0, 1, 0, 1, -360, 360],
        [9003, 9038, 0.4412, 2.9668, 0, 137. , 0, 0, 1, 0, 1, -360, 360],
        [9012, 9121, 0.23552, 0.99036, 0, 192. , 0, 0, 0, 0, 1, -360, 360],
        [9053, 9533, 0, 0.75, 0, 65.  , 0, 0, 0.9583, 0, 1, -360, 360],
        [1, 5, 0.001, 0.006, 0,  4020.7  , 0, 0, 0, 0, 1, -360, 360],
        [2, 6, 0.001, 0.009, 0,  1585.1  , 0, 0, 0, 0, 1, -360, 360],
        [2, 8, 0.006, 0.027, 0.054,  3651.1  , 0, 0, 0, 0, 1, -360, 360],
        [3, 7, 0, 0.003, 0,  2601.4  , 0, 0, 0, 0, 1, -360, 360],
        [3, 19, 0.008, 0.069, 0.139, 1391.3 , 0, 0, 0, 0, 1, -360, 360],
        [3, 150, 0.001, 0.007, 0, 929. , 0, 0, 0, 0, 1, -360, 360],
        [4, 16, 0.002, 0.019, 1.127, 7125.5 , 0, 0, 0, 0, 1, -360, 360],
        [5, 9, 0.006, 0.029, 0.018,  1193.3  , 0, 0, 0, 0, 1, -360, 360],
        [7, 12, 0.001, 0.009, 0.07,  1804.9  , 0, 0, 0, 0, 1, -360, 360],
        [7, 131, 0.001, 0.007, 0.014, 460.4  , 0, 0, 0, 0, 1, -360, 360],
        [8, 11, 0.013, 0.0595, 0.033,  77.5  , 0, 0, 0, 0, 1, -360, 360],
        [8, 14, 0.013, 0.042, 0.081, 2930.9 , 0, 0, 0, 0, 1, -360, 360],
        [9, 11, 0.006, 0.027, 0.013,  224.5 , 0, 0, 0, 0, 1, -360, 360],
        [11, 13, 0.008, 0.034, 0.018,  1534.1  , 0, 0, 0, 0, 1, -360, 360],
        [12, 21, 0.002, 0.015, 0.118,  4206.3  , 0, 0, 0, 0, 1, -360, 360],
        [13, 20, 0.006, 0.034, 0.016, 935.4  , 0, 0, 0, 0, 1, -360, 360],
        [14, 15, 0.014, 0.042, 0.097,  1221.3  , 0, 0, 0, 0, 1, -360, 360],
        [15, 37, 0.065, 0.248, 0.121, 199.6  , 0, 0, 0, 0, 1, -360, 360],
        [15, 89, 0.099, 0.248, 0.035, 172.1  , 0, 0, 0, 0, 1, -360, 360],
        [15, 90, 0.096, 0.363, 0.048, 133.2  , 0, 0, 0, 0, 1, -360, 360],
        [16, 42, 0.002, 0.022, 1.28, 4012.  , 0, 0, 0, 0, 1, -360, 360],
        [19, 21, 0.002, 0.018, 0.036, 459.4  , 0, 0, 0, 0, 1, -360, 360],
        [19, 87, 0.013, 0.08, 0.151, 1835.  , 0, 0, 0, 0, 1, -360, 360],
        [20, 22, 0.016, 0.033, 0.015, 151.2  , 0, 0, 0, 0, 1, -360, 360],
        [20, 27, 0.069, 0.186, 0.098, 243.1  , 0, 0, 0, 0, 1, -360, 360],
        [21, 24, 0.004, 0.034, 0.28, 2273.8 , 0, 0, 0, 0, 1, -360, 360],
        [22, 23, 0.052, 0.111, 0.05,  962.3 , 0, 0, 0, 0, 1, -360, 360],
        [23, 25, 0.019, 0.039, 0.018,  1264.7  , 0, 0, 0, 0, 1, -360, 360],
        [24, 319, 0.007, 0.068, 0.134, 1167.8 , 0, 0, 0, 0, 1, -360, 360],
        [25, 26, 0.036, 0.071, 0.034, 786.8  , 0, 0, 0, 0, 1, -360, 360],
        [26, 27, 0.045, 0.12, 0.065,  460.8 , 0, 0, 0, 0, 1, -360, 360],
        [26, 320, 0.043, 0.13, 0.014, 124. , 0, 0, 0, 0, 1, -360, 360],
        [33, 34, 0, 0.063, 0,  1211.2  , 0, 0, 0, 0, 1, -360, 360],
        [33, 38, 0.0025, 0.012, 0.013,  855.3 , 0, 0, 0, 0, 1, -360, 360],
        [33, 40, 0.006, 0.029, 0.02,  479.5 , 0, 0, 0, 0, 1, -360, 360],
        [33, 41, 0.007, 0.043, 0.026, 673.6  , 0, 0, 0, 0, 1, -360, 360],
        [34, 42, 0.001, 0.008, 0.042,  1211.2  , 0, 0, 0, 0, 1, -360, 360],
        [35, 72, 0.012, 0.06, 0.008,  485.9 , 0, 0, 0, 0, 1, -360, 360],
        [35, 76, 0.006, 0.014, 0.002,  1130.4  , 0, 0, 0, 0, 1, -360, 360],
        [35, 77, 0.01, 0.029, 0.003,  481.  , 0, 0, 0, 0, 1, -360, 360],
        [36, 88, 0.004, 0.027, 0.043,  1135.4  , 0, 0, 0, 0, 1, -360, 360],
        [37, 38, 0.008, 0.047, 0.008, 497.8  , 0, 0, 0, 0, 1, -360, 360],
        [37, 40, 0.022, 0.064, 0.007, 387.5  , 0, 0, 0, 0, 1, -360, 360],
        [37, 41, 0.01, 0.036, 0.02, 438.9  , 0, 0, 0, 0, 1, -360, 360],
        [37, 49, 0.017, 0.081, 0.048,  1859.2  , 0, 0, 0, 0, 1, -360, 360],
        [37, 89, 0.102, 0.254, 0.033, 102.5  , 0, 0, 0, 0, 1, -360, 360],
        [37, 90, 0.047, 0.127, 0.016,  79.5  , 0, 0, 0, 0, 1, -360, 360],
        [38, 41, 0.008, 0.037, 0.02, 1047.  , 0, 0, 0, 0, 1, -360, 360],
        [38, 43, 0.032, 0.087, 0.04,  846.3 , 0, 0, 0, 0, 1, -360, 360],
        [39, 42, 0.0006, 0.0064, 0.404,  5000. , 0, 0, 0, 0, 1, -360, 360],
        [40, 48, 0.026, 0.154, 0.022, 402.1  , 0, 0, 0, 0, 1, -360, 360],
        [41, 42, 0, 0.029, 0,  1953.2  , 0, 0, 0, 0, 1, -360, 360],
        [41, 49, 0.065, 0.191, 0.02,  673.9 , 0, 0, 0, 0, 1, -360, 360],
        [41, 51, 0.031, 0.089, 0.036, 405.8  , 0, 0, 0, 0, 1, -360, 360],
        [42, 46, 0.002, 0.014, 0.806,  5800.5  , 0, 0, 0, 0, 1, -360, 360],
        [43, 44, 0.026, 0.072, 0.035, 109.3  , 0, 0, 0, 0, 1, -360, 360],
        [43, 48, 0.095, 0.262, 0.032, 197. , 0, 0, 0, 0, 1, -360, 360],
        [43, 53, 0.013, 0.039, 0.016, 364.3  , 0, 0, 0, 0, 1, -360, 360],
        [44, 47, 0.027, 0.084, 0.039,  1188.1  , 0, 0, 0, 0, 1, -360, 360],
        [44, 54, 0.028, 0.084, 0.037, 215.4  , 0, 0, 0, 0, 1, -360, 360],
        [45, 60, 0.007, 0.041, 0.312,  2233.5  , 0, 0, 0, 0, 1, -360, 360],
        [45, 74, 0.009, 0.054, 0.411,  2417.4  , 0, 0, 0, 0, 1, -360, 360],
        [46, 81, 0.005, 0.042, 0.69, 3110.6 , 0, 0, 0, 0, 1, -360, 360],
        [47, 73, 0.052, 0.145, 0.073, 265.1  , 0, 0, 0, 0, 1, -360, 360],
        [47, 113, 0.043, 0.118, 0.013,  305.5 , 0, 0, 0, 0, 1, -360, 360],
        [48, 107, 0.025, 0.062, 0.007,  258.  , 0, 0, 0, 0, 1, -360, 360],
        [49, 51, 0.031, 0.094, 0.043,  1019.5  , 0, 0, 0, 0, 1, -360, 360],
        [51, 52, 0.037, 0.109, 0.049, 628.4  , 0, 0, 0, 0, 1, -360, 360],
        [52, 55, 0.027, 0.08, 0.036, 21.5 , 0, 0, 0, 0, 1, -360, 360],
        [53, 54, 0.025, 0.073, 0.035, 327.4  , 0, 0, 0, 0, 1, -360, 360],
        [54, 55, 0.035, 0.103, 0.047, 647.2  , 0, 0, 0, 0, 1, -360, 360],
        [55, 57, 0.065, 0.169, 0.082, 429.4  , 0, 0, 0, 0, 1, -360, 360],
        [57, 58, 0.046, 0.08, 0.036,  101.2 , 0, 0, 0, 0, 1, -360, 360],
        [57, 63, 0.159, 0.537, 0.071, 329.9  , 0, 0, 0, 0, 1, -360, 360],
        [58, 59, 0.009, 0.026, 0.005, 257.4  , 0, 0, 0, 0, 1, -360, 360],
        [59, 61, 0.002, 0.013, 0.015,  2441.2  , 0, 0, 0, 0, 1, -360, 360],
        [60, 62, 0.009, 0.065, 0.485,  2268.1  , 0, 0, 0, 0, 1, -360, 360],
        [62, 64, 0.016, 0.105, 0.203,  1971.9  , 0, 0, 0, 0, 1, -360, 360],
        [62, 144, 0.001, 0.007, 0.013, 1011.6 , 0, 0, 0, 0, 1, -360, 360],
        [63, 526, 0.0265, 0.172, 0.026,  1519.8  , 0, 0, 0, 0, 1, -360, 360],
        [69, 211, 0.051, 0.232, 0.028,  274.5 , 0, 0, 0, 0, 1, -360, 360],
        [69, 79, 0.051, 0.157, 0.023, 173. , 0, 0, 0, 0, 1, -360, 360],
        [70, 71, 0.032, 0.1, 0.062, 843.7  , 0, 0, 0, 0, 1, -360, 360],
        [70, 528, 0.02, 0.1234, 0.028,  283.7 , 0, 0, 0, 0, 1, -360, 360],
        [71, 72, 0.036, 0.131, 0.068, 262.3  , 0, 0, 0, 0, 1, -360, 360],
        [71, 73, 0.034, 0.099, 0.047, 606.6  , 0, 0, 0, 0, 1, -360, 360],
        [72, 77, 0.018, 0.087, 0.011, 493.4  , 0, 0, 0, 0, 1, -360, 360],
        [72, 531, 0.0256, 0.193, 0, 140.6  , 0, 0, 0, 0, 1, -360, 360],
        [73, 76, 0.021, 0.057, 0.03,  275.  , 0, 0, 0, 0, 1, -360, 360],
        [73, 79, 0.018, 0.052, 0.018, 234. , 0, 0, 0, 0, 1, -360, 360],
        [74, 88, 0.004, 0.027, 0.05,  788.1 , 0, 0, 0, 0, 1, -360, 360],
        [74, 562, 0.0286, 0.2013, 0.379,  512.6 , 0, 0, 0, 0, 1, -360, 360],
        [76, 77, 0.016, 0.043, 0.004, 685.7  , 0, 0, 0, 0, 1, -360, 360],
        [77, 78, 0.001, 0.006, 0.007,  2578.5  , 0, 0, 0, 0, 1, -360, 360],
        [77, 80, 0.014, 0.07, 0.038,  156.  , 0, 0, 0, 0, 1, -360, 360],
        [77, 552, 0.0891, 0.2676, 0.029,  109.8 , 0, 0, 0, 0, 1, -360, 360],
        [77, 609, 0.0782, 0.2127, 0.022,  303.5 , 0, 0, 0, 0, 1, -360, 360],
        [78, 79, 0.006, 0.022, 0.011, 794.3  , 0, 0, 0, 0, 1, -360, 360],
        [78, 84, 0, 0.036, 0,  3380. , 0, 0, 0, 0, 1, -360, 360],
        [79, 211, 0.099, 0.375, 0.051,  498.5 , 0, 0, 0, 0, 1, -360, 360],
        [80, 211, 0.022, 0.107, 0.058,  311.2 , 0, 0, 0, 0, 1, -360, 360],
        [81, 194, 0.0035, 0.033, 0.53,  114.7 , 0, 0, 0, 0, 1, -360, 360],
        [81, 195, 0.0035, 0.033, 0.53, 1017.7 , 0, 0, 0, 0, 1, -360, 360],
        [85, 86, 0.008, 0.064, 0.128, 926.6  , 0, 0, 0, 0, 1, -360, 360],
        [86, 87, 0.012, 0.093, 0.183,  1161.7  , 0, 0, 0, 0, 1, -360, 360],
        [86, 323, 0.006, 0.048, 0.092,  148.6 , 0, 0, 0, 0, 1, -360, 360],
        [89, 91, 0.047, 0.119, 0.014, 293.6  , 0, 0, 0, 0, 1, -360, 360],
        [90, 92, 0.032, 0.174, 0.024, 544.5  , 0, 0, 0, 0, 1, -360, 360],
        [91, 94, 0.1, 0.253, 0.031, 423.5  , 0, 0, 0, 0, 1, -360, 360],
        [91, 97, 0.022, 0.077, 0.039, 993.8  , 0, 0, 0, 0, 1, -360, 360],
        [92, 103, 0.019, 0.144, 0.017,  783.2 , 0, 0, 0, 0, 1, -360, 360],
        [92, 105, 0.017, 0.092, 0.012, 1405.4 , 0, 0, 0, 0, 1, -360, 360],
        [94, 97, 0.278, 0.427, 0.043, 434.5  , 0, 0, 0, 0, 1, -360, 360],
        [97, 100, 0.022, 0.053, 0.007,  434.7 , 0, 0, 0, 0, 1, -360, 360],
        [97, 102, 0.038, 0.092, 0.012,  401.9 , 0, 0, 0, 0, 1, -360, 360],
        [97, 103, 0.048, 0.122, 0.015,  181.  , 0, 0, 0, 0, 1, -360, 360],
        [98, 100, 0.024, 0.064, 0.007,  348.  , 0, 0, 0, 0, 1, -360, 360],
        [98, 102, 0.034, 0.121, 0.015,  413.  , 0, 0, 0, 0, 1, -360, 360],
        [99, 107, 0.053, 0.135, 0.017,  522.9 , 0, 0, 0, 0, 1, -360, 360],
        [99, 108, 0.002, 0.004, 0.002,  103.8 , 0, 0, 0, 0, 1, -360, 360],
        [99, 109, 0.045, 0.354, 0.044,  283.2 , 0, 0, 0, 0, 1, -360, 360],
        [99, 110, 0.05, 0.174, 0.022, 435.1  , 0, 0, 0, 0, 1, -360, 360],
        [100, 102, 0.016, 0.038, 0.004, 360.8  , 0, 0, 0, 0, 1, -360, 360],
        [102, 104, 0.043, 0.064, 0.027, 435.6  , 0, 0, 0, 0, 1, -360, 360],
        [103, 105, 0.019, 0.062, 0.008, 269.9  , 0, 0, 0, 0, 1, -360, 360],
        [104, 108, 0.076, 0.13, 0.044,  315.6 , 0, 0, 0, 0, 1, -360, 360],
        [104, 322, 0.044, 0.124, 0.015, 120.5  , 0, 0, 0, 0, 1, -360, 360],
        [105, 107, 0.012, 0.088, 0.011, 640.8  , 0, 0, 0, 0, 1, -360, 360],
        [105, 110, 0.157, 0.4, 0.047, 506.4  , 0, 0, 0, 0, 1, -360, 360],
        [108, 324, 0.074, 0.208, 0.026, 251.8  , 0, 0, 0, 0, 1, -360, 360],
        [109, 110, 0.07, 0.184, 0.021,  102.9 , 0, 0, 0, 0, 1, -360, 360],
        [109, 113, 0.1, 0.274, 0.031, 195. , 0, 0, 0, 0, 1, -360, 360],
        [109, 114, 0.109, 0.393, 0.036, 114.4  , 0, 0, 0, 0, 1, -360, 360],
        [110, 112, 0.142, 0.404, 0.05,  159.4 , 0, 0, 0, 0, 1, -360, 360],
        [112, 114, 0.017, 0.042, 0.006, 204.5  , 0, 0, 0, 0, 1, -360, 360],
        [115, 122, 0.0036, 0.0199, 0.004, 525.4  , 0, 0, 0, 0, 1, -360, 360],
        [116, 120, 0.002, 0.1049, 0.001,  626.8 , 0, 0, 0, 0, 1, -360, 360],
        [117, 118, 0.0001, 0.0018, 0.017,  4876.8  , 0, 0, 0, 0, 1, -360, 360],
        [118, 119, 0, 0.0271, 0, 5779.3 , 0, 0, 0, 0, 1, -360, 360],
        [118, 1201, 0, 0.6163, 0, 292.8  , 0, 0, 0, 0, 1, -360, 360],
        [1201, 120, 0, -0.3697, 0,  292.8 , 0, 0, 0, 0, 1, -360, 360],
        [118, 121, 0.0022, 0.2915, 0, 465. , 0, 0, 0, 0, 1, -360, 360],
        [119, 120, 0, 0.0339, 0, 7105.6 , 0, 0, 0, 0, 1, -360, 360],
        [119, 121, 0, 0.0582, 0, 5411.  , 0, 0, 0, 0, 1, -360, 360],
        [122, 123, 0.0808, 0.2344, 0.029, 178.3  , 0, 0, 0, 0, 1, -360, 360],
        [122, 125, 0.0965, 0.3669, 0.054, 154.7  , 0, 0, 0, 0, 1, -360, 360],
        [123, 124, 0.036, 0.1076, 0.117,  675.2 , 0, 0, 0, 0, 1, -360, 360],
        [123, 125, 0.0476, 0.1414, 0.149, 341.5  , 0, 0, 0, 0, 1, -360, 360],
        [125, 126, 0.0006, 0.0197, 0,  4929.8  , 0, 0, 0, 0, 1, -360, 360],
        [126, 127, 0.0059, 0.0405, 0.25,  990.8 , 0, 0, 0, 0, 1, -360, 360],
        [126, 129, 0.0115, 0.1106, 0.185,  1312.2  , 0, 0, 0, 0, 1, -360, 360],
        [126, 132, 0.0198, 0.1688, 0.321,  1583.6  , 0, 0, 0, 0, 1, -360, 360],
        [126, 157, 0.005, 0.05, 0.33, 291.7  , 0, 0, 0, 0, 1, -360, 360],
        [126, 158, 0.0077, 0.0538, 0.335, 464.6  , 0, 0, 0, 0, 1, -360, 360],
        [126, 169, 0.0165, 0.1157, 0.171, 880.8  , 0, 0, 0, 0, 1, -360, 360],
        [127, 128, 0.0059, 0.0577, 0.095,  1716.7  , 0, 0, 0, 0, 1, -360, 360],
        [127, 134, 0.0049, 0.0336, 0.208,  1378. , 0, 0, 0, 0, 1, -360, 360],
        [127, 168, 0.0059, 0.0577, 0.095,  1710. , 0, 0, 0, 0, 1, -360, 360],
        [128, 130, 0.0078, 0.0773, 0.126,  2347. , 0, 0, 0, 0, 1, -360, 360],
        [128, 133, 0.0026, 0.0193, 0.03,  612.7 , 0, 0, 0, 0, 1, -360, 360],
        [129, 130, 0.0076, 0.0752, 0.122,  2327. , 0, 0, 0, 0, 1, -360, 360],
        [129, 133, 0.0021, 0.0186, 0.03,  994.5 , 0, 0, 0, 0, 1, -360, 360],
...
    ])

    ##-----  OPF Data  -----##
    ## generator cost data
    # 1 startup shutdown n x1 y1 ... xn yn
    # 2 startup shutdown n c(n-1) ... c0
    ppc["gencost"] = array([
        [2, 0, 0, 3, 0.01, 40, 0],
        [2, 0, 0, 3, 0.01, 40, 0],
        [2, 0, 0, 3, 0.01, 40, 0],
        [2, 0, 0, 3, 0.01, 40, 0],
        [2, 0, 0, 3, 0.01, 40, 0],
        [2, 0, 0, 3, 0.0266667, 20, 0],
        [2, 0, 0, 3, 0.0645161, 20, 0],
        [2, 0, 0, 3, 0.0344828, 20, 0],
        [2, 0, 0, 3, 0.147059, 20, 0],
        [2, 0, 0, 3, 0.0854701, 20, 0],
        [2, 0, 0, 3, 0.00518135, 20, 0],
        [2, 0, 0, 3, 0.0416667, 20, 0],
        [2, 0, 0, 3, 0.01, 40, 0],
        [2, 0, 0, 3, 0.01, 40, 0],
        [2, 0, 0, 3, 0.0355872, 20, 0],
        [2, 0, 0, 3, 0.0143678, 20, 0],
        [2, 0, 0, 3, 0.119048, 20, 0],
        [2, 0, 0, 3, 0.0460829, 20, 0],
        [2, 0, 0, 3, 0.0970874, 20, 0],
        [2, 0, 0, 3, 0.0268817, 20, 0],
        [2, 0, 0, 3, 0.0462963, 20, 0],
        [2, 0, 0, 3, 0.01, 40, 0],
        [2, 0, 0, 3, 0.0487805, 20, 0],
        [2, 0, 0, 3, 0.01, 40, 0],
        [2, 0, 0, 3, 0.0438596, 20, 0],
        [2, 0, 0, 3, 0.119048, 20, 0],
        [2, 0, 0, 3, 0.05, 20, 0],
        [2, 0, 0, 3, 0.00833333, 20, 0],
        [2, 0, 0, 3, 0.00833333, 20, 0],
        [2, 0, 0, 3, 0.0210526, 20, 0],
        [2, 0, 0, 3, 0.00506842, 20, 0],
        [2, 0, 0, 3, 0.0235849, 20, 0],
        [2, 0, 0, 3, 0.0367647, 20, 0],
        [2, 0, 0, 3, 0.1, 20, 0],
        [2, 0, 0, 3, 0.0222222, 20, 0],
        [2, 0, 0, 3, 0.04, 20, 0],
        [2, 0, 0, 3, 0.0330033, 20, 0],
        [2, 0, 0, 3, 0.0289855, 20, 0],
        [2, 0, 0, 3, 0.0333333, 20, 0],
        [2, 0, 0, 3, 0.0166667, 20, 0],
        [2, 0, 0, 3, 0.04, 20, 0],
        [2, 0, 0, 3, 0.0181818, 20, 0],
        [2, 0, 0, 3, 0.0173783, 20, 0],
        [2, 0, 0, 3, 0.0588235, 20, 0],
        [2, 0, 0, 3, 0.119048, 20, 0],
        [2, 0, 0, 3, 0.0214133, 20, 0],
        [2, 0, 0, 3, 0.0160514, 20, 0],
        [2, 0, 0, 3, 0.00826446, 20, 0],
        [2, 0, 0, 3, 0.042735, 20, 0],
        [2, 0, 0, 3, 0.0268817, 20, 0],
        [2, 0, 0, 3, 0.030303, 20, 0],
        [2, 0, 0, 3, 0.0540541, 20, 0],
        [2, 0, 0, 3, 0.0243902, 20, 0],
        [2, 0, 0, 3, 0.02, 20, 0],
        [2, 0, 0, 3, 0.27027, 20, 0],
        [2, 0, 0, 3, 0.01, 40, 0],
        [2, 0, 0, 3, 0.222222, 20, 0],
        [2, 0, 0, 3, 0.0606061, 20, 0],
        [2, 0, 0, 3, 0.025, 20, 0],
        [2, 0, 0, 3, 0.025, 20, 0],
        [2, 0, 0, 3, 0.0862069, 20, 0],
        [2, 0, 0, 3, 0.00773994, 20, 0],
        [2, 0, 0, 3, 0.0142857, 20, 0],
        [2, 0, 0, 3, 0.0180832, 20, 0],
        [2, 0, 0, 3, 0.01, 40, 0],
        [2, 0, 0, 3, 0.01, 40, 0],
        [2, 0, 0, 3, 0.01, 40, 0],
        [2, 0, 0, 3, 0.2, 20, 0],
        [2, 0, 0, 3, 1.25, 20, 0]
    ])


    return ppc
